4zlz_ligand #1-1
  xed2sdf           3D
 
 34 36  0  0  0  0  0  0  0  0999 V2000
    1.2754    1.4045   -3.5826 C   0  0  0  0  0  0  0  0  0  0  0  0
    0.8076   -0.0795   -1.9248 C   0  0  0  0  0  0  0  0  0  0  0  0
    1.7195    0.4875   -1.0469 C   0  0  0  0  0  0  0  0  0  0  0  0
    1.8571   -0.1302    0.2737 C   0  0  0  0  0  0  0  0  0  0  0  0
    3.2499   -0.7127    2.1668 C   0  0  0  0  0  0  0  0  0  0  0  0
   -0.1519   -1.9761    2.8443 C   0  0  0  0  0  0  0  0  0  0  0  0
   -1.3954   -1.9803    2.1680 C   0  0  0  0  0  0  0  0  0  0  0  0
    3.4505    2.4075   -0.7378 C   0  0  0  0  0  0  0  0  0  0  0  0
    2.4249    1.5935   -1.5132 C   0  0  0  0  0  0  0  0  0  0  0  0
    2.1958    2.0382   -2.7865 C   0  0  0  0  0  0  0  0  0  0  0  0
    0.5597    0.3413   -3.1780 N   0  0  0  0  0  0  0  0  0  0  0  0
    3.0606   -0.1273    0.9010 C   0  0  0  0  0  0  0  0  0  0  0  0
    2.2302   -1.3116    2.8094 C   0  0  0  0  0  0  0  0  0  0  0  0
    0.9382   -1.3706    2.2271 C   0  0  0  0  0  0  0  0  0  0  0  0
   -0.0310   -2.5577    4.0962 N   0  0  0  0  0  0  0  0  0  0  0  0
   -1.4901   -1.4026    0.9844 N   0  0  0  0  0  0  0  0  0  0  0  0
   -0.4402   -0.8104    0.3858 N   0  0  0  0  0  0  0  0  0  0  0  0
    0.7651   -0.7741    0.9515 C   0  0  0  0  0  0  0  0  0  0  0  0
   -2.6456   -2.5963    2.6893 C   0  0  0  0  0  0  0  0  0  0  0  0
   -3.7755   -2.3650    1.9999 N   0  0  0  0  0  0  0  0  0  0  0  0
   -2.6179   -3.2906    3.6997 O   0  0  0  0  0  0  0  0  0  0  0  0
    1.1284    1.7527   -4.5083 H   0  0  0  0  0  0  0  0  0  0  0  0
    0.2900   -0.8715   -1.6007 H   0  0  0  0  0  0  0  0  0  0  0  0
    4.1535   -0.6841    2.5942 H   0  0  0  0  0  0  0  0  0  0  0  0
    4.5380    1.9151   -0.8622 H   0  0  0  0  0  0  0  0  0  0  0  0
    3.1471    2.4559    0.4219 H   0  0  0  0  0  0  0  0  0  0  0  0
    3.4969    3.5347   -1.1491 H   0  0  0  0  0  0  0  0  0  0  0  0
    2.6970    2.8290   -3.1375 H   0  0  0  0  0  0  0  0  0  0  0  0
    3.8417    0.3009    0.4512 H   0  0  0  0  0  0  0  0  0  0  0  0
    2.3958   -1.7172    3.7062 H   0  0  0  0  0  0  0  0  0  0  0  0
   -0.7267   -2.9089    4.4961 H   0  0  0  0  0  0  0  0  0  0  0  0
    0.7441   -2.5773    4.5083 H   0  0  0  0  0  0  0  0  0  0  0  0
   -3.7592   -1.8710    1.2708 H   0  0  0  0  0  0  0  0  0  0  0  0
   -4.5380   -2.7076    2.2771 H   0  0  0  0  0  0  0  0  0  0  0  0
  1 10  2  0
  1 11  1  0
  2  3  1  0
  2 11  2  0
  3  4  1  0
  3  9  2  0
  4 12  2  0
  4 18  1  0
  5 12  1  0
  5 13  2  0
  6  7  2  0
  6 14  1  0
  6 15  1  0
  7 16  1  0
  7 19  1  0
  8  9  1  0
  9 10  1  0
 13 14  1  0
 14 18  2  0
 16 17  2  0
 17 18  1  0
 19 20  1  0
 19 21  2  0
  1 22  1  0
  2 23  1  0
  5 24  1  0
  8 25  1  0
  8 26  1  0
  8 27  1  0
 10 28  1  0
 12 29  1  0
 13 30  1  0
 15 31  1  0
 15 32  1  0
 20 33  1  0
 20 34  1  0
M  END
>  <Total Formal Charge>
0

>  <Gradient>
0.0248037

>  <RMSD>
0.102269

>  <QM_ENERGY>
-57.428059

>  <HOMO>
-0.351029

>  <LUMO>
-0.28325

>  <DIPOLE>
1.35

>  <Molecule>
4zlz_ligand

>  <Conformer>
1

>  <Energy>
55.8867

>  <Isomer>
1

>  <_cresset_fieldpoints2>
 2
    -5      -0.889433      -0.437280      -4.157216    -12.5146
    -5      -1.934251      -0.298182      -0.514945    -15.4930
    -5      -3.757754      -4.457519       4.701549    -11.4627
    -5      -3.367993      -4.153986       0.833220     -4.1635
    -5      -4.157907      -0.617908       3.228268     -3.3730
    -6       4.056418       4.359482      -3.327263      3.8039
    -6       5.755301       1.016425       1.021802      4.7974
    -6       2.372835      -2.626680       5.513205     11.6581
    -6      -6.429553      -2.923875       2.076548      5.0938
    -7       2.345780      -3.370239      -0.351535     -2.2547
    -7       5.516379       1.900026       1.770942     -1.7310
    -7       1.737394      -4.658511       3.195413     -1.7569
    -7      -0.845527      -5.207653       3.299088     -1.7541
    -7       1.146325       2.417177       2.174027     -2.5476
    -7       2.372527       4.190712      -5.354997     -0.9483
    -7       1.929881       4.579535      -4.928199     -0.9474
    -7       4.778167      -0.690349      -1.927880     -2.3154
    -7       0.509468      -0.118240       5.491878     -1.7714
    -7      -2.314233      -1.090829       5.355669     -1.6800
    -7      -3.750738       0.266874       2.861019     -1.3871
    -7      -0.903149      -2.901169      -0.928778     -2.3536
    -7      -1.903949       0.895071       0.025306     -2.3995
    -8       2.043935      -0.733786       1.564938      6.9414
    -8       2.593040       0.818173      -0.327127      5.8374
    -8       1.834053       1.169950      -2.023652      5.6388
    -8       2.449356       1.601092      -1.491036      5.5305
    -8      -1.255189      -1.983140       2.807621      2.7451
    -8       2.031533      -0.041568       0.224897      5.4770

$$$$
4zlz_ligand #1-2
  xed2sdf           3D
 
 34 36  0  0  0  0  0  0  0  0999 V2000
    1.7138    1.8104   -3.4153 C   0  0  0  0  0  0  0  0  0  0  0  0
    2.3907    1.6759   -1.2474 C   0  0  0  0  0  0  0  0  0  0  0  0
    1.7596    0.4566   -1.0505 C   0  0  0  0  0  0  0  0  0  0  0  0
    1.8628   -0.1579    0.2698 C   0  0  0  0  0  0  0  0  0  0  0  0
    3.2515   -0.7124    2.1671 C   0  0  0  0  0  0  0  0  0  0  0  0
   -0.1567   -1.9705    2.8445 C   0  0  0  0  0  0  0  0  0  0  0  0
   -1.4032   -1.9609    2.1720 C   0  0  0  0  0  0  0  0  0  0  0  0
    0.3683   -1.4268   -2.1409 C   0  0  0  0  0  0  0  0  0  0  0  0
    1.0872   -0.0884   -2.1364 C   0  0  0  0  0  0  0  0  0  0  0  0
    1.0673    0.6032   -3.3161 C   0  0  0  0  0  0  0  0  0  0  0  0
    2.3892    2.3735   -2.3977 N   0  0  0  0  0  0  0  0  0  0  0  0
    3.0665   -0.1344    0.8970 C   0  0  0  0  0  0  0  0  0  0  0  0
    2.2301   -1.3113    2.8087 C   0  0  0  0  0  0  0  0  0  0  0  0
    0.9368   -1.3712    2.2275 C   0  0  0  0  0  0  0  0  0  0  0  0
   -0.0334   -2.5632    4.0908 N   0  0  0  0  0  0  0  0  0  0  0  0
   -1.4968   -1.3775    0.9908 N   0  0  0  0  0  0  0  0  0  0  0  0
   -0.4439   -0.7923    0.3908 N   0  0  0  0  0  0  0  0  0  0  0  0
    0.7637   -0.7788    0.9509 C   0  0  0  0  0  0  0  0  0  0  0  0
   -2.6594   -2.5661    2.6925 C   0  0  0  0  0  0  0  0  0  0  0  0
   -3.7510   -2.4764    1.9137 N   0  0  0  0  0  0  0  0  0  0  0  0
   -2.6743   -3.1170    3.7879 O   0  0  0  0  0  0  0  0  0  0  0  0
    1.6833    2.2940   -4.2901 H   0  0  0  0  0  0  0  0  0  0  0  0
    2.8825    2.0739   -0.4730 H   0  0  0  0  0  0  0  0  0  0  0  0
    4.1533   -0.6802    2.5979 H   0  0  0  0  0  0  0  0  0  0  0  0
   -0.7518   -1.2716   -1.7389 H   0  0  0  0  0  0  0  0  0  0  0  0
    0.9457   -2.1894   -1.4163 H   0  0  0  0  0  0  0  0  0  0  0  0
    0.3317   -1.8928   -3.2471 H   0  0  0  0  0  0  0  0  0  0  0  0
    0.5857    0.2271   -4.1075 H   0  0  0  0  0  0  0  0  0  0  0  0
    3.8464    0.2979    0.4443 H   0  0  0  0  0  0  0  0  0  0  0  0
    2.3946   -1.7139    3.7071 H   0  0  0  0  0  0  0  0  0  0  0  0
   -0.7234   -2.9355    4.4804 H   0  0  0  0  0  0  0  0  0  0  0  0
    0.7395   -2.5730    4.5077 H   0  0  0  0  0  0  0  0  0  0  0  0
   -3.7072   -2.0782    1.1293 H   0  0  0  0  0  0  0  0  0  0  0  0
   -4.5159   -2.8165    2.1873 H   0  0  0  0  0  0  0  0  0  0  0  0
  1 10  2  0
  1 11  1  0
  2  3  1  0
  2 11  2  0
  3  4  1  0
  3  9  2  0
  4 12  2  0
  4 18  1  0
  5 12  1  0
  5 13  2  0
  6  7  2  0
  6 14  1  0
  6 15  1  0
  7 16  1  0
  7 19  1  0
  8  9  1  0
  9 10  1  0
 13 14  1  0
 14 18  2  0
 16 17  2  0
 17 18  1  0
 19 20  1  0
 19 21  2  0
  1 22  1  0
  2 23  1  0
  5 24  1  0
  8 25  1  0
  8 26  1  0
  8 27  1  0
 10 28  1  0
 12 29  1  0
 13 30  1  0
 15 31  1  0
 15 32  1  0
 20 33  1  0
 20 34  1  0
M  END
>  <Total Formal Charge>
0

>  <Gradient>
0.0248037

>  <RMSD>
0.102269

>  <QM_ENERGY>
-57.428059

>  <HOMO>
-0.351029

>  <LUMO>
-0.28325

>  <DIPOLE>
1.35

>  <Molecule>
4zlz_ligand

>  <Conformer>
2

>  <Energy>
56.1975

>  <Isomer>
1

>  <_cresset_fieldpoints2>
 2
    -5      -1.917612       0.096196      -0.156751    -14.8245
    -5       3.202838       4.099043      -2.556619    -11.2771
    -5       2.850165      -3.211989      -0.038948     -1.7649
    -5      -3.896723      -4.027676       4.945984    -11.3370
    -5      -1.679454      -2.605421      -0.466482     -6.1408
    -5      -3.244358      -4.405150       1.053715     -3.4903
    -5      -4.247619      -0.594432       2.884595     -3.7004
    -6       0.491924       1.139139      -6.153352      3.0781
    -6       4.879693       2.105525       0.623271      3.8076
    -6       5.882728       0.562574       1.473070      3.6931
    -6       2.373843      -2.646465       5.501929     11.6587
    -6      -0.209137      -1.027035      -5.518383      3.1584
    -6      -6.370346      -3.148061       1.846282      5.2001
    -7       0.445887       1.120924      -6.576728     -0.9449
    -7       1.098417       2.236148       2.442150     -2.2534
    -7       0.519685      -0.121103       5.497294     -1.7656
    -7       1.732022      -4.654965       3.178425     -1.7674
    -7      -2.173800      -1.008432       5.387141     -1.7163
    -7      -1.044645      -5.198524       3.287562     -1.7270
    -7      -1.880234      -3.294896      -0.636943     -2.1899
    -7      -1.727553       0.881096      -0.465027     -2.8512
    -7       2.595998      -3.501093       0.023808     -2.5965
    -7       3.508655      -2.599679      -1.322345     -2.4059
    -8       2.046592      -0.744635       1.560024      6.9467
    -8       2.455131       0.534467      -0.208006      5.7133
    -8       1.517841       0.698469      -2.192368      5.6337
    -8       1.111427      -0.073940      -2.152060      5.4786
    -8       1.832921       0.352591      -0.929592      5.4555

$$$$
4zlz_ligand #1-3
  xed2sdf           3D
 
 34 36  0  0  0  0  0  0  0  0999 V2000
    1.2024    1.7987   -3.3681 C   0  0  0  0  0  0  0  0  0  0  0  0
    0.5526    1.2270   -1.2646 C   0  0  0  0  0  0  0  0  0  0  0  0
    1.7069    0.4971   -1.0278 C   0  0  0  0  0  0  0  0  0  0  0  0
    1.8548   -0.1374    0.2790 C   0  0  0  0  0  0  0  0  0  0  0  0
    3.2506   -0.7125    2.1667 C   0  0  0  0  0  0  0  0  0  0  0  0
   -0.1539   -1.9796    2.8361 C   0  0  0  0  0  0  0  0  0  0  0  0
   -1.3872   -1.9982    2.1494 C   0  0  0  0  0  0  0  0  0  0  0  0
    3.9488   -0.3348   -2.0186 C   0  0  0  0  0  0  0  0  0  0  0  0
    2.6363    0.4327   -2.0590 C   0  0  0  0  0  0  0  0  0  0  0  0
    2.3713    1.0925   -3.2273 C   0  0  0  0  0  0  0  0  0  0  0  0
    0.2685    1.8833   -2.4040 N   0  0  0  0  0  0  0  0  0  0  0  0
    3.0610   -0.1261    0.9006 C   0  0  0  0  0  0  0  0  0  0  0  0
    2.2300   -1.3117    2.8094 C   0  0  0  0  0  0  0  0  0  0  0  0
    0.9378   -1.3708    2.2272 C   0  0  0  0  0  0  0  0  0  0  0  0
   -0.0585   -2.5444    4.0967 N   0  0  0  0  0  0  0  0  0  0  0  0
   -1.4945   -1.4086    0.9735 N   0  0  0  0  0  0  0  0  0  0  0  0
   -0.4447   -0.8079    0.3813 N   0  0  0  0  0  0  0  0  0  0  0  0
    0.7583   -0.7708    0.9541 C   0  0  0  0  0  0  0  0  0  0  0  0
   -2.5967   -2.6606    2.6972 C   0  0  0  0  0  0  0  0  0  0  0  0
   -2.5124   -3.9003    3.2134 N   0  0  0  0  0  0  0  0  0  0  0  0
   -3.6455   -2.0316    2.6105 O   0  0  0  0  0  0  0  0  0  0  0  0
    1.0365    2.2725   -4.2329 H   0  0  0  0  0  0  0  0  0  0  0  0
   -0.1228    1.2735   -0.5283 H   0  0  0  0  0  0  0  0  0  0  0  0
    4.1539   -0.6840    2.5947 H   0  0  0  0  0  0  0  0  0  0  0  0
    4.2797   -0.6654   -3.1244 H   0  0  0  0  0  0  0  0  0  0  0  0
    3.8153   -1.3261   -1.3561 H   0  0  0  0  0  0  0  0  0  0  0  0
    4.8100    0.3571   -1.5506 H   0  0  0  0  0  0  0  0  0  0  0  0
    3.0283    1.0580   -3.9802 H   0  0  0  0  0  0  0  0  0  0  0  0
    3.8368    0.3134    0.4492 H   0  0  0  0  0  0  0  0  0  0  0  0
    2.3942   -1.7188    3.7061 H   0  0  0  0  0  0  0  0  0  0  0  0
   -0.7797   -2.8411    4.5031 H   0  0  0  0  0  0  0  0  0  0  0  0
    0.7151   -2.6000    4.5095 H   0  0  0  0  0  0  0  0  0  0  0  0
   -1.7490   -4.3393    3.2008 H   0  0  0  0  0  0  0  0  0  0  0  0
   -3.2292   -4.2844    3.5506 H   0  0  0  0  0  0  0  0  0  0  0  0
  1 10  2  0
  1 11  1  0
  2  3  1  0
  2 11  2  0
  3  4  1  0
  3  9  2  0
  4 12  2  0
  4 18  1  0
  5 12  1  0
  5 13  2  0
  6  7  2  0
  6 14  1  0
  6 15  1  0
  7 16  1  0
  7 19  1  0
  8  9  1  0
  9 10  1  0
 13 14  1  0
 14 18  2  0
 16 17  2  0
 17 18  1  0
 19 20  1  0
 19 21  2  0
  1 22  1  0
  2 23  1  0
  5 24  1  0
  8 25  1  0
  8 26  1  0
  8 27  1  0
 10 28  1  0
 12 29  1  0
 13 30  1  0
 15 31  1  0
 15 32  1  0
 20 33  1  0
 20 34  1  0
M  END
>  <Total Formal Charge>
0

>  <Gradient>
0.0248037

>  <RMSD>
0.102269

>  <QM_ENERGY>
-57.428059

>  <HOMO>
-0.351029

>  <LUMO>
-0.28325

>  <DIPOLE>
1.35

>  <Molecule>
4zlz_ligand

>  <Conformer>
3

>  <Energy>
57.2999

>  <Isomer>
1

>  <_cresset_fieldpoints2>
 2
    -5      -1.525066       2.498553      -2.667682    -12.9018
    -5      -2.005655      -0.699560      -0.719183    -19.3868
    -5      -3.592582      -0.634468       1.302741    -19.7113
    -6       4.773521       0.718628      -5.022983      3.7083
    -6       5.947737       0.220204       0.559529      4.6898
    -6       2.373867      -2.804390       5.443188     12.8630
    -6      -0.881044      -4.671631       5.054671     11.9418
    -6       0.290359      -3.631406       6.065353     11.6176
    -7      -0.659248      -1.974394      -1.679577     -2.4092
    -7       0.809792       2.192008       2.407519     -2.2900
    -7       6.050591      -1.379452       0.272945     -1.7393
    -7       4.071524       2.839795      -0.334050     -2.3224
    -7       2.828753       1.982715      -6.435075     -0.9454
    -7       0.494898      -0.138708       5.498159     -1.7839
    -7       0.899744      -4.968892       3.226603     -1.8698
    -7       2.517694      -3.345056      -0.311534     -2.6016
    -7      -2.482274      -1.054212       5.245254     -1.6301
    -7      -1.911401       1.092697       1.155796     -2.3298
    -7      -3.026335      -2.289322       5.529398     -1.6146
    -8       1.879513       0.894271      -2.137777      5.6434
    -8       2.042205      -0.738255       1.563325      6.9473
    -8      -1.241766      -2.282696       2.791875      2.9252
    -8       2.738592       0.041193      -0.702870      5.8601

$$$$
4zlz_ligand #1-4
  xed2sdf           3D
 
 34 36  0  0  0  0  0  0  0  0999 V2000
    1.2177    1.4643   -3.5517 C   0  0  0  0  0  0  0  0  0  0  0  0
    0.7668   -0.0347   -1.9034 C   0  0  0  0  0  0  0  0  0  0  0  0
    1.7019    0.5108   -1.0359 C   0  0  0  0  0  0  0  0  0  0  0  0
    1.8527   -0.1200    0.2775 C   0  0  0  0  0  0  0  0  0  0  0  0
    3.2490   -0.7128    2.1664 C   0  0  0  0  0  0  0  0  0  0  0  0
   -0.1531   -1.9731    2.8409 C   0  0  0  0  0  0  0  0  0  0  0  0
   -1.3856   -1.9992    2.1516 C   0  0  0  0  0  0  0  0  0  0  0  0
    3.4607    2.4074   -0.7395 C   0  0  0  0  0  0  0  0  0  0  0  0
    2.4107    1.6140   -1.5033 C   0  0  0  0  0  0  0  0  0  0  0  0
    2.1614    2.0769   -2.7664 C   0  0  0  0  0  0  0  0  0  0  0  0
    0.4982    0.4043   -3.1459 N   0  0  0  0  0  0  0  0  0  0  0  0
    3.0576   -0.1227    0.9028 C   0  0  0  0  0  0  0  0  0  0  0  0
    2.2301   -1.3120    2.8101 C   0  0  0  0  0  0  0  0  0  0  0  0
    0.9392   -1.3702    2.2268 C   0  0  0  0  0  0  0  0  0  0  0  0
   -0.0580   -2.5178    4.1107 N   0  0  0  0  0  0  0  0  0  0  0  0
   -1.4908   -1.4083    0.9762 N   0  0  0  0  0  0  0  0  0  0  0  0
   -0.4434   -0.8014    0.3878 N   0  0  0  0  0  0  0  0  0  0  0  0
    0.7630   -0.7694    0.9533 C   0  0  0  0  0  0  0  0  0  0  0  0
   -2.6002   -2.6665    2.6846 C   0  0  0  0  0  0  0  0  0  0  0  0
   -2.5107   -3.8693    3.2812 N   0  0  0  0  0  0  0  0  0  0  0  0
   -3.6611   -2.0788    2.5053 O   0  0  0  0  0  0  0  0  0  0  0  0
    1.0557    1.8263   -4.4696 H   0  0  0  0  0  0  0  0  0  0  0  0
    0.2458   -0.8243   -1.5787 H   0  0  0  0  0  0  0  0  0  0  0  0
    4.1533   -0.6857    2.5920 H   0  0  0  0  0  0  0  0  0  0  0  0
    4.5379    1.8993   -0.8872 H   0  0  0  0  0  0  0  0  0  0  0  0
    3.1789    2.4520    0.4257 H   0  0  0  0  0  0  0  0  0  0  0  0
    3.5179    3.5367   -1.1436 H   0  0  0  0  0  0  0  0  0  0  0  0
    2.6647    2.8661   -3.1177 H   0  0  0  0  0  0  0  0  0  0  0  0
    3.8388    0.3064    0.4541 H   0  0  0  0  0  0  0  0  0  0  0  0
    2.3951   -1.7198    3.7062 H   0  0  0  0  0  0  0  0  0  0  0  0
   -0.7819   -2.7804    4.5346 H   0  0  0  0  0  0  0  0  0  0  0  0
    0.7193   -2.5895    4.5137 H   0  0  0  0  0  0  0  0  0  0  0  0
   -1.7394   -4.2913    3.3261 H   0  0  0  0  0  0  0  0  0  0  0  0
   -3.2328   -4.2485    3.6127 H   0  0  0  0  0  0  0  0  0  0  0  0
  1 10  2  0
  1 11  1  0
  2  3  1  0
  2 11  2  0
  3  4  1  0
  3  9  2  0
  4 12  2  0
  4 18  1  0
  5 12  1  0
  5 13  2  0
  6  7  2  0
  6 14  1  0
  6 15  1  0
  7 16  1  0
  7 19  1  0
  8  9  1  0
  9 10  1  0
 13 14  1  0
 14 18  2  0
 16 17  2  0
 17 18  1  0
 19 20  1  0
 19 21  2  0
  1 22  1  0
  2 23  1  0
  5 24  1  0
  8 25  1  0
  8 26  1  0
  8 27  1  0
 10 28  1  0
 12 29  1  0
 13 30  1  0
 15 31  1  0
 15 32  1  0
 20 33  1  0
 20 34  1  0
M  END
>  <Total Formal Charge>
0

>  <Gradient>
0.0248037

>  <RMSD>
0.102269

>  <QM_ENERGY>
-57.428059

>  <HOMO>
-0.351029

>  <LUMO>
-0.28325

>  <DIPOLE>
1.35

>  <Molecule>
4zlz_ligand

>  <Conformer>
4

>  <Energy>
57.365

>  <Isomer>
1

>  <_cresset_fieldpoints2>
 2
    -5      -3.543641      -0.754022       1.128339    -20.4404
    -5      -1.073318      -0.264422      -4.010845    -13.0431
    -5      -2.107318      -0.282785      -0.404264    -19.5189
    -6       4.055950       4.369009      -3.318097      3.7392
    -6       2.379619      -2.812085       5.440499     12.9207
    -6       5.757057       1.002943       1.015288      4.8484
    -6       0.260619      -3.590354       6.081712     11.7839
    -6      -0.888073      -4.585256       5.164062     12.3079
    -7      -0.621707      -3.035285      -0.889619     -2.3163
    -7      -1.751931       1.095064       0.161253     -2.3542
    -7       1.149523       2.440054       2.152697     -2.5516
    -7       4.737024      -0.697105      -1.949903     -2.3106
    -7       2.307199       4.260457      -5.314025     -0.9485
    -7       4.622360      -2.176041       4.975573     -1.0248
    -7       2.346321      -3.370566      -0.333185     -2.2456
    -7       5.564864       1.858486       1.730979     -1.7295
    -7       0.505433      -0.118677       5.494141     -1.7942
    -7      -3.040241      -2.185396       5.505462     -1.6220
    -7      -2.606602      -1.128405       5.239763     -1.6119
    -7      -1.374256      -2.539029      -1.102308     -2.2267
    -7       0.901669      -4.959452       3.259030     -1.8618
    -8       2.042715      -0.729128       1.565039      6.9418
    -8       2.595996       0.837158      -0.326275      5.8300
    -8       1.800434       1.206269      -2.006904      5.6385
    -8       2.434883       1.622287      -1.483216      5.5297
    -8      -1.246141      -2.286957       2.793184      2.9228

$$$$
4zlz_ligand #1-5
  xed2sdf           3D
 
 34 36  0  0  0  0  0  0  0  0999 V2000
    1.6497    1.8250   -3.3927 C   0  0  0  0  0  0  0  0  0  0  0  0
    2.3048    1.7090   -1.2166 C   0  0  0  0  0  0  0  0  0  0  0  0
    1.7469    0.4522   -1.0457 C   0  0  0  0  0  0  0  0  0  0  0  0
    1.8619   -0.1638    0.2707 C   0  0  0  0  0  0  0  0  0  0  0  0
    3.2514   -0.7123    2.1668 C   0  0  0  0  0  0  0  0  0  0  0  0
   -0.1638   -1.9524    2.8464 C   0  0  0  0  0  0  0  0  0  0  0  0
   -1.4028   -1.9458    2.1682 C   0  0  0  0  0  0  0  0  0  0  0  0
    0.4983   -1.5083   -2.1640 C   0  0  0  0  0  0  0  0  0  0  0  0
    1.1278   -0.1252   -2.1454 C   0  0  0  0  0  0  0  0  0  0  0  0
    1.0813    0.5771   -3.3179 C   0  0  0  0  0  0  0  0  0  0  0  0
    2.2734    2.4186   -2.3591 N   0  0  0  0  0  0  0  0  0  0  0  0
    3.0653   -0.1331    0.8967 C   0  0  0  0  0  0  0  0  0  0  0  0
    2.2299   -1.3116    2.8091 C   0  0  0  0  0  0  0  0  0  0  0  0
    0.9371   -1.3711    2.2273 C   0  0  0  0  0  0  0  0  0  0  0  0
   -0.0713   -2.5044    4.1129 N   0  0  0  0  0  0  0  0  0  0  0  0
   -1.5041   -1.3606    0.9894 N   0  0  0  0  0  0  0  0  0  0  0  0
   -0.4454   -0.7894    0.3857 N   0  0  0  0  0  0  0  0  0  0  0  0
    0.7623   -0.7844    0.9480 C   0  0  0  0  0  0  0  0  0  0  0  0
   -2.6305   -2.5674    2.7246 C   0  0  0  0  0  0  0  0  0  0  0  0
   -2.5778   -3.7859    3.2924 N   0  0  0  0  0  0  0  0  0  0  0  0
   -3.6671   -1.9256    2.5952 O   0  0  0  0  0  0  0  0  0  0  0  0
    1.6005    2.3163   -4.2621 H   0  0  0  0  0  0  0  0  0  0  0  0
    2.7614    2.1241   -0.4294 H   0  0  0  0  0  0  0  0  0  0  0  0
    4.1532   -0.6789    2.5975 H   0  0  0  0  0  0  0  0  0  0  0  0
   -0.6554   -1.4202   -1.8467 H   0  0  0  0  0  0  0  0  0  0  0  0
    1.0704   -2.2201   -1.3856 H   0  0  0  0  0  0  0  0  0  0  0  0
    0.5726   -1.9958   -3.2589 H   0  0  0  0  0  0  0  0  0  0  0  0
    0.6372    0.1802   -4.1210 H   0  0  0  0  0  0  0  0  0  0  0  0
    3.8408    0.3068    0.4436 H   0  0  0  0  0  0  0  0  0  0  0  0
    2.3925   -1.7133    3.7087 H   0  0  0  0  0  0  0  0  0  0  0  0
   -0.7973   -2.7595    4.5381 H   0  0  0  0  0  0  0  0  0  0  0  0
    0.7071   -2.5916    4.5107 H   0  0  0  0  0  0  0  0  0  0  0  0
   -1.8240   -4.2407    3.3081 H   0  0  0  0  0  0  0  0  0  0  0  0
   -3.3067   -4.1411    3.6356 H   0  0  0  0  0  0  0  0  0  0  0  0
  1 10  2  0
  1 11  1  0
  2  3  1  0
  2 11  2  0
  3  4  1  0
  3  9  2  0
  4 12  2  0
  4 18  1  0
  5 12  1  0
  5 13  2  0
  6  7  2  0
  6 14  1  0
  6 15  1  0
  7 16  1  0
  7 19  1  0
  8  9  1  0
  9 10  1  0
 13 14  1  0
 14 18  2  0
 16 17  2  0
 17 18  1  0
 19 20  1  0
 19 21  2  0
  1 22  1  0
  2 23  1  0
  5 24  1  0
  8 25  1  0
  8 26  1  0
  8 27  1  0
 10 28  1  0
 12 29  1  0
 13 30  1  0
 15 31  1  0
 15 32  1  0
 20 33  1  0
 20 34  1  0
M  END
>  <Total Formal Charge>
0

>  <Gradient>
0.0248037

>  <RMSD>
0.102269

>  <QM_ENERGY>
-57.428059

>  <HOMO>
-0.351029

>  <LUMO>
-0.28325

>  <DIPOLE>
1.35

>  <Molecule>
4zlz_ligand

>  <Conformer>
5

>  <Energy>
57.5823

>  <Isomer>
1

>  <_cresset_fieldpoints2>
 2
    -5      -2.088302      -0.055886      -0.266344    -19.0060
    -5       2.945588       4.206628      -2.486008    -11.4161
    -5      -3.542361      -0.564462       1.254821    -19.9253
    -6       0.573304       1.136849      -6.171427      2.9170
    -6       0.094719      -1.166695      -5.577147      2.9412
    -6       4.828568       2.148945       0.642033      3.6735
    -6       5.916959       0.459073       1.583348      3.7187
    -6       2.369903      -2.836837       5.427141     12.8940
    -6       0.250926      -3.581863       6.084359     11.7318
    -6      -0.949950      -4.571901       5.135566     12.2223
    -7       0.527310       1.084256      -6.594591     -0.9436
    -7       3.712995      -2.388227      -1.496011     -2.3856
    -7       4.585566      -1.937793       5.103209     -1.0237
    -7       1.087143       2.246381       2.412486     -2.2829
    -7       0.789528      -4.973675       3.243814     -1.8534
    -7      -1.731128       0.792367      -0.621638     -2.8418
    -7       0.531603      -0.132342       5.512717     -1.7964
    -7      -2.492089      -0.970906       5.262226     -1.6240
    -7      -3.020422      -2.100574       5.552235     -1.6213
    -7       2.637357      -3.538009       0.109508     -2.5774
    -8       1.508301       0.689947      -2.189943      5.6352
    -8       2.043791      -0.746119       1.560483      6.9504
    -8       1.375071      -0.451368      -1.088064      5.3331
    -8      -1.266595      -2.218694       2.813803      2.9270
    -8       2.419624       0.541718      -0.193111      5.6996
    -8       1.150030      -0.113891      -2.157032      5.4804

$$$$
4zlz_ligand #1-6
  xed2sdf           3D
 
 34 36  0  0  0  0  0  0  0  0999 V2000
    1.7240    1.8303   -3.4011 C   0  0  0  0  0  0  0  0  0  0  0  0
    2.3784    1.6890   -1.2273 C   0  0  0  0  0  0  0  0  0  0  0  0
    1.7594    0.4610   -1.0468 C   0  0  0  0  0  0  0  0  0  0  0  0
    1.8585   -0.1599    0.2703 C   0  0  0  0  0  0  0  0  0  0  0  0
    3.2505   -0.7125    2.1668 C   0  0  0  0  0  0  0  0  0  0  0  0
   -0.1541   -1.9712    2.8433 C   0  0  0  0  0  0  0  0  0  0  0  0
   -1.3992   -1.9546    2.1783 C   0  0  0  0  0  0  0  0  0  0  0  0
    0.4035   -1.4331   -2.1562 C   0  0  0  0  0  0  0  0  0  0  0  0
    1.1045   -0.0848   -2.1425 C   0  0  0  0  0  0  0  0  0  0  0  0
    1.0894    0.6155   -3.3172 C   0  0  0  0  0  0  0  0  0  0  0  0
    2.3824    2.3941   -2.3727 N   0  0  0  0  0  0  0  0  0  0  0  0
    3.0624   -0.1342    0.8975 C   0  0  0  0  0  0  0  0  0  0  0  0
    2.2301   -1.3116    2.8093 C   0  0  0  0  0  0  0  0  0  0  0  0
    0.9378   -1.3708    2.2272 C   0  0  0  0  0  0  0  0  0  0  0  0
   -0.0369   -2.5953    4.0735 N   0  0  0  0  0  0  0  0  0  0  0  0
   -1.5010   -1.3971    0.9862 N   0  0  0  0  0  0  0  0  0  0  0  0
   -0.4471   -0.8156    0.3814 N   0  0  0  0  0  0  0  0  0  0  0  0
    0.7593   -0.7858    0.9471 C   0  0  0  0  0  0  0  0  0  0  0  0
   -2.6241   -2.5532    2.7646 C   0  0  0  0  0  0  0  0  0  0  0  0
   -2.9599   -2.2888    4.0401 N   0  0  0  0  0  0  0  0  0  0  0  0
   -3.2987   -3.2537    2.0178 O   0  0  0  0  0  0  0  0  0  0  0  0
    1.6979    2.3195   -4.2728 H   0  0  0  0  0  0  0  0  0  0  0  0
    2.8569    2.0867   -0.4445 H   0  0  0  0  0  0  0  0  0  0  0  0
    4.1529   -0.6794    2.5963 H   0  0  0  0  0  0  0  0  0  0  0  0
   -0.7204   -1.2972   -1.7581 H   0  0  0  0  0  0  0  0  0  0  0  0
    0.9882   -2.1900   -1.4314 H   0  0  0  0  0  0  0  0  0  0  0  0
    0.3790   -1.8968   -3.2637 H   0  0  0  0  0  0  0  0  0  0  0  0
    0.6203    0.2401   -4.1164 H   0  0  0  0  0  0  0  0  0  0  0  0
    3.8404    0.3014    0.4448 H   0  0  0  0  0  0  0  0  0  0  0  0
    2.3937   -1.7146    3.7079 H   0  0  0  0  0  0  0  0  0  0  0  0
   -0.7152   -3.0440    4.4076 H   0  0  0  0  0  0  0  0  0  0  0  0
    0.7150   -2.5621    4.5265 H   0  0  0  0  0  0  0  0  0  0  0  0
   -2.4849   -1.7232    4.5196 H   0  0  0  0  0  0  0  0  0  0  0  0
   -3.6692   -2.6709    4.3950 H   0  0  0  0  0  0  0  0  0  0  0  0
  1 10  2  0
  1 11  1  0
  2  3  1  0
  2 11  2  0
  3  4  1  0
  3  9  2  0
  4 12  2  0
  4 18  1  0
  5 12  1  0
  5 13  2  0
  6  7  2  0
  6 14  1  0
  6 15  1  0
  7 16  1  0
  7 19  1  0
  8  9  1  0
  9 10  1  0
 13 14  1  0
 14 18  2  0
 16 17  2  0
 17 18  1  0
 19 20  1  0
 19 21  2  0
  1 22  1  0
  2 23  1  0
  5 24  1  0
  8 25  1  0
  8 26  1  0
  8 27  1  0
 10 28  1  0
 12 29  1  0
 13 30  1  0
 15 31  1  0
 15 32  1  0
 20 33  1  0
 20 34  1  0
M  END
>  <Total Formal Charge>
0

>  <Gradient>
0.0248037

>  <RMSD>
0.102269

>  <QM_ENERGY>
-57.428059

>  <HOMO>
-0.351029

>  <LUMO>
-0.28325

>  <DIPOLE>
1.35

>  <Molecule>
4zlz_ligand

>  <Conformer>
6

>  <Energy>
57.5854

>  <Isomer>
1

>  <_cresset_fieldpoints2>
 2
    -5      -2.090230      -0.123166      -0.313626    -17.7460
    -5      -2.950152      -2.968799       0.157083    -19.0852
    -5       2.676728      -3.302807       0.039991     -1.9243
    -5       3.168837       4.133351      -2.519097    -11.3294
    -6       0.603697       1.230809      -6.165571      2.9073
    -6       4.856252       2.124647       0.676077      3.8070
    -6       5.883190       0.540672       1.554402      3.7496
    -6      -1.466749      -2.589558       6.108702     11.9785
    -6       2.299206      -2.497045       5.599427     12.8226
    -6       0.242366      -3.402348       6.180485     11.6076
    -6      -0.001027      -1.006382      -5.616822      2.8421
    -7       0.542065       1.130627      -6.592734     -0.9443
    -7       1.729728      -4.652357       3.218417     -1.7904
    -7       3.592188      -2.490286      -1.428905     -2.3978
    -7      -1.690392       0.899499      -0.499817     -2.8183
    -7      -1.289140      -5.224852       3.160047     -1.6465
    -7      -2.182476      -3.647605       6.309287     -1.2728
    -7       1.091236       2.236156       2.437528     -2.2662
    -7      -0.403916      -0.337464       5.579771     -1.8644
    -7       2.598649      -3.511545       0.041880     -2.5910
    -7      -2.191194      -5.073885       4.103552     -1.6243
    -8       1.527496       0.708188      -2.188141      5.6351
    -8       1.133180      -0.070873      -2.156613      5.4783
    -8       2.442503       0.537062      -0.202339      5.7225
    -8       2.042507      -0.744359       1.558233      6.9487
    -8       1.831640       0.354560      -0.925178      5.4616
    -8      -1.246244      -2.271441       2.804840      2.9281

$$$$
